* CDL Netlist generated by OpenROAD

*.BUSDELIMITER [

.SUBCKT Sync_FIFO_async_rst clk din[0] din[1] din[2] din[3]
+ din[4] din[5] din[6] din[7] dout[0] dout[1] dout[2] dout[3]
+ dout[4] dout[5] dout[6] dout[7] empty full rd_en rst wr_en
XPHY_EDGE_ROW_0_Left_39 _unconnected_0 _unconnected_1 _unconnected_2
+ _unconnected_3 sky130_fd_sc_hd__decap_3
XPHY_EDGE_ROW_0_Right_0 _unconnected_4 _unconnected_5 _unconnected_6
+ _unconnected_7 sky130_fd_sc_hd__decap_3
XPHY_EDGE_ROW_10_Left_49 _unconnected_8 _unconnected_9 _unconnected_10
+ _unconnected_11 sky130_fd_sc_hd__decap_3
XPHY_EDGE_ROW_10_Right_10 _unconnected_12 _unconnected_13
+ _unconnected_14 _unconnected_15 sky130_fd_sc_hd__decap_3
XPHY_EDGE_ROW_11_Left_50 _unconnected_16 _unconnected_17 _unconnected_18
+ _unconnected_19 sky130_fd_sc_hd__decap_3
XPHY_EDGE_ROW_11_Right_11 _unconnected_20 _unconnected_21
+ _unconnected_22 _unconnected_23 sky130_fd_sc_hd__decap_3
XPHY_EDGE_ROW_12_Left_51 _unconnected_24 _unconnected_25 _unconnected_26
+ _unconnected_27 sky130_fd_sc_hd__decap_3
XPHY_EDGE_ROW_12_Right_12 _unconnected_28 _unconnected_29
+ _unconnected_30 _unconnected_31 sky130_fd_sc_hd__decap_3
XPHY_EDGE_ROW_13_Left_52 _unconnected_32 _unconnected_33 _unconnected_34
+ _unconnected_35 sky130_fd_sc_hd__decap_3
XPHY_EDGE_ROW_13_Right_13 _unconnected_36 _unconnected_37
+ _unconnected_38 _unconnected_39 sky130_fd_sc_hd__decap_3
XPHY_EDGE_ROW_14_Left_53 _unconnected_40 _unconnected_41 _unconnected_42
+ _unconnected_43 sky130_fd_sc_hd__decap_3
XPHY_EDGE_ROW_14_Right_14 _unconnected_44 _unconnected_45
+ _unconnected_46 _unconnected_47 sky130_fd_sc_hd__decap_3
XPHY_EDGE_ROW_15_Left_54 _unconnected_48 _unconnected_49 _unconnected_50
+ _unconnected_51 sky130_fd_sc_hd__decap_3
XPHY_EDGE_ROW_15_Right_15 _unconnected_52 _unconnected_53
+ _unconnected_54 _unconnected_55 sky130_fd_sc_hd__decap_3
XPHY_EDGE_ROW_16_Left_55 _unconnected_56 _unconnected_57 _unconnected_58
+ _unconnected_59 sky130_fd_sc_hd__decap_3
XPHY_EDGE_ROW_16_Right_16 _unconnected_60 _unconnected_61
+ _unconnected_62 _unconnected_63 sky130_fd_sc_hd__decap_3
XPHY_EDGE_ROW_17_Left_56 _unconnected_64 _unconnected_65 _unconnected_66
+ _unconnected_67 sky130_fd_sc_hd__decap_3
XPHY_EDGE_ROW_17_Right_17 _unconnected_68 _unconnected_69
+ _unconnected_70 _unconnected_71 sky130_fd_sc_hd__decap_3
XPHY_EDGE_ROW_18_Left_57 _unconnected_72 _unconnected_73 _unconnected_74
+ _unconnected_75 sky130_fd_sc_hd__decap_3
XPHY_EDGE_ROW_18_Right_18 _unconnected_76 _unconnected_77
+ _unconnected_78 _unconnected_79 sky130_fd_sc_hd__decap_3
XPHY_EDGE_ROW_19_Left_58 _unconnected_80 _unconnected_81 _unconnected_82
+ _unconnected_83 sky130_fd_sc_hd__decap_3
XPHY_EDGE_ROW_19_Right_19 _unconnected_84 _unconnected_85
+ _unconnected_86 _unconnected_87 sky130_fd_sc_hd__decap_3
XPHY_EDGE_ROW_1_Left_40 _unconnected_88 _unconnected_89 _unconnected_90
+ _unconnected_91 sky130_fd_sc_hd__decap_3
XPHY_EDGE_ROW_1_Right_1 _unconnected_92 _unconnected_93 _unconnected_94
+ _unconnected_95 sky130_fd_sc_hd__decap_3
XPHY_EDGE_ROW_20_Left_59 _unconnected_96 _unconnected_97 _unconnected_98
+ _unconnected_99 sky130_fd_sc_hd__decap_3
XPHY_EDGE_ROW_20_Right_20 _unconnected_100 _unconnected_101
+ _unconnected_102 _unconnected_103 sky130_fd_sc_hd__decap_3
XPHY_EDGE_ROW_21_Left_60 _unconnected_104 _unconnected_105
+ _unconnected_106 _unconnected_107 sky130_fd_sc_hd__decap_3
XPHY_EDGE_ROW_21_Right_21 _unconnected_108 _unconnected_109
+ _unconnected_110 _unconnected_111 sky130_fd_sc_hd__decap_3
XPHY_EDGE_ROW_22_Left_61 _unconnected_112 _unconnected_113
+ _unconnected_114 _unconnected_115 sky130_fd_sc_hd__decap_3
XPHY_EDGE_ROW_22_Right_22 _unconnected_116 _unconnected_117
+ _unconnected_118 _unconnected_119 sky130_fd_sc_hd__decap_3
XPHY_EDGE_ROW_23_Left_62 _unconnected_120 _unconnected_121
+ _unconnected_122 _unconnected_123 sky130_fd_sc_hd__decap_3
XPHY_EDGE_ROW_23_Right_23 _unconnected_124 _unconnected_125
+ _unconnected_126 _unconnected_127 sky130_fd_sc_hd__decap_3
XPHY_EDGE_ROW_24_Left_63 _unconnected_128 _unconnected_129
+ _unconnected_130 _unconnected_131 sky130_fd_sc_hd__decap_3
XPHY_EDGE_ROW_24_Right_24 _unconnected_132 _unconnected_133
+ _unconnected_134 _unconnected_135 sky130_fd_sc_hd__decap_3
XPHY_EDGE_ROW_25_Left_64 _unconnected_136 _unconnected_137
+ _unconnected_138 _unconnected_139 sky130_fd_sc_hd__decap_3
XPHY_EDGE_ROW_25_Right_25 _unconnected_140 _unconnected_141
+ _unconnected_142 _unconnected_143 sky130_fd_sc_hd__decap_3
XPHY_EDGE_ROW_26_Left_65 _unconnected_144 _unconnected_145
+ _unconnected_146 _unconnected_147 sky130_fd_sc_hd__decap_3
XPHY_EDGE_ROW_26_Right_26 _unconnected_148 _unconnected_149
+ _unconnected_150 _unconnected_151 sky130_fd_sc_hd__decap_3
XPHY_EDGE_ROW_27_Left_66 _unconnected_152 _unconnected_153
+ _unconnected_154 _unconnected_155 sky130_fd_sc_hd__decap_3
XPHY_EDGE_ROW_27_Right_27 _unconnected_156 _unconnected_157
+ _unconnected_158 _unconnected_159 sky130_fd_sc_hd__decap_3
XPHY_EDGE_ROW_28_Left_67 _unconnected_160 _unconnected_161
+ _unconnected_162 _unconnected_163 sky130_fd_sc_hd__decap_3
XPHY_EDGE_ROW_28_Right_28 _unconnected_164 _unconnected_165
+ _unconnected_166 _unconnected_167 sky130_fd_sc_hd__decap_3
XPHY_EDGE_ROW_29_Left_68 _unconnected_168 _unconnected_169
+ _unconnected_170 _unconnected_171 sky130_fd_sc_hd__decap_3
XPHY_EDGE_ROW_29_Right_29 _unconnected_172 _unconnected_173
+ _unconnected_174 _unconnected_175 sky130_fd_sc_hd__decap_3
XPHY_EDGE_ROW_2_Left_41 _unconnected_176 _unconnected_177
+ _unconnected_178 _unconnected_179 sky130_fd_sc_hd__decap_3
XPHY_EDGE_ROW_2_Right_2 _unconnected_180 _unconnected_181
+ _unconnected_182 _unconnected_183 sky130_fd_sc_hd__decap_3
XPHY_EDGE_ROW_30_Left_69 _unconnected_184 _unconnected_185
+ _unconnected_186 _unconnected_187 sky130_fd_sc_hd__decap_3
XPHY_EDGE_ROW_30_Right_30 _unconnected_188 _unconnected_189
+ _unconnected_190 _unconnected_191 sky130_fd_sc_hd__decap_3
XPHY_EDGE_ROW_31_Left_70 _unconnected_192 _unconnected_193
+ _unconnected_194 _unconnected_195 sky130_fd_sc_hd__decap_3
XPHY_EDGE_ROW_31_Right_31 _unconnected_196 _unconnected_197
+ _unconnected_198 _unconnected_199 sky130_fd_sc_hd__decap_3
XPHY_EDGE_ROW_32_Left_71 _unconnected_200 _unconnected_201
+ _unconnected_202 _unconnected_203 sky130_fd_sc_hd__decap_3
XPHY_EDGE_ROW_32_Right_32 _unconnected_204 _unconnected_205
+ _unconnected_206 _unconnected_207 sky130_fd_sc_hd__decap_3
XPHY_EDGE_ROW_33_Left_72 _unconnected_208 _unconnected_209
+ _unconnected_210 _unconnected_211 sky130_fd_sc_hd__decap_3
XPHY_EDGE_ROW_33_Right_33 _unconnected_212 _unconnected_213
+ _unconnected_214 _unconnected_215 sky130_fd_sc_hd__decap_3
XPHY_EDGE_ROW_34_Left_73 _unconnected_216 _unconnected_217
+ _unconnected_218 _unconnected_219 sky130_fd_sc_hd__decap_3
XPHY_EDGE_ROW_34_Right_34 _unconnected_220 _unconnected_221
+ _unconnected_222 _unconnected_223 sky130_fd_sc_hd__decap_3
XPHY_EDGE_ROW_35_Left_74 _unconnected_224 _unconnected_225
+ _unconnected_226 _unconnected_227 sky130_fd_sc_hd__decap_3
XPHY_EDGE_ROW_35_Right_35 _unconnected_228 _unconnected_229
+ _unconnected_230 _unconnected_231 sky130_fd_sc_hd__decap_3
XPHY_EDGE_ROW_36_Left_75 _unconnected_232 _unconnected_233
+ _unconnected_234 _unconnected_235 sky130_fd_sc_hd__decap_3
XPHY_EDGE_ROW_36_Right_36 _unconnected_236 _unconnected_237
+ _unconnected_238 _unconnected_239 sky130_fd_sc_hd__decap_3
XPHY_EDGE_ROW_37_Left_76 _unconnected_240 _unconnected_241
+ _unconnected_242 _unconnected_243 sky130_fd_sc_hd__decap_3
XPHY_EDGE_ROW_37_Right_37 _unconnected_244 _unconnected_245
+ _unconnected_246 _unconnected_247 sky130_fd_sc_hd__decap_3
XPHY_EDGE_ROW_38_Left_77 _unconnected_248 _unconnected_249
+ _unconnected_250 _unconnected_251 sky130_fd_sc_hd__decap_3
XPHY_EDGE_ROW_38_Right_38 _unconnected_252 _unconnected_253
+ _unconnected_254 _unconnected_255 sky130_fd_sc_hd__decap_3
XPHY_EDGE_ROW_3_Left_42 _unconnected_256 _unconnected_257
+ _unconnected_258 _unconnected_259 sky130_fd_sc_hd__decap_3
XPHY_EDGE_ROW_3_Right_3 _unconnected_260 _unconnected_261
+ _unconnected_262 _unconnected_263 sky130_fd_sc_hd__decap_3
XPHY_EDGE_ROW_4_Left_43 _unconnected_264 _unconnected_265
+ _unconnected_266 _unconnected_267 sky130_fd_sc_hd__decap_3
XPHY_EDGE_ROW_4_Right_4 _unconnected_268 _unconnected_269
+ _unconnected_270 _unconnected_271 sky130_fd_sc_hd__decap_3
XPHY_EDGE_ROW_5_Left_44 _unconnected_272 _unconnected_273
+ _unconnected_274 _unconnected_275 sky130_fd_sc_hd__decap_3
XPHY_EDGE_ROW_5_Right_5 _unconnected_276 _unconnected_277
+ _unconnected_278 _unconnected_279 sky130_fd_sc_hd__decap_3
XPHY_EDGE_ROW_6_Left_45 _unconnected_280 _unconnected_281
+ _unconnected_282 _unconnected_283 sky130_fd_sc_hd__decap_3
XPHY_EDGE_ROW_6_Right_6 _unconnected_284 _unconnected_285
+ _unconnected_286 _unconnected_287 sky130_fd_sc_hd__decap_3
XPHY_EDGE_ROW_7_Left_46 _unconnected_288 _unconnected_289
+ _unconnected_290 _unconnected_291 sky130_fd_sc_hd__decap_3
XPHY_EDGE_ROW_7_Right_7 _unconnected_292 _unconnected_293
+ _unconnected_294 _unconnected_295 sky130_fd_sc_hd__decap_3
XPHY_EDGE_ROW_8_Left_47 _unconnected_296 _unconnected_297
+ _unconnected_298 _unconnected_299 sky130_fd_sc_hd__decap_3
XPHY_EDGE_ROW_8_Right_8 _unconnected_300 _unconnected_301
+ _unconnected_302 _unconnected_303 sky130_fd_sc_hd__decap_3
XPHY_EDGE_ROW_9_Left_48 _unconnected_304 _unconnected_305
+ _unconnected_306 _unconnected_307 sky130_fd_sc_hd__decap_3
XPHY_EDGE_ROW_9_Right_9 _unconnected_308 _unconnected_309
+ _unconnected_310 _unconnected_311 sky130_fd_sc_hd__decap_3
XTAP_TAPCELL_ROW_0_78 _unconnected_312 _unconnected_313 sky130_fd_sc_hd__tapvpwrvgnd_1
XTAP_TAPCELL_ROW_0_79 _unconnected_314 _unconnected_315 sky130_fd_sc_hd__tapvpwrvgnd_1
XTAP_TAPCELL_ROW_0_80 _unconnected_316 _unconnected_317 sky130_fd_sc_hd__tapvpwrvgnd_1
XTAP_TAPCELL_ROW_0_81 _unconnected_318 _unconnected_319 sky130_fd_sc_hd__tapvpwrvgnd_1
XTAP_TAPCELL_ROW_0_82 _unconnected_320 _unconnected_321 sky130_fd_sc_hd__tapvpwrvgnd_1
XTAP_TAPCELL_ROW_0_83 _unconnected_322 _unconnected_323 sky130_fd_sc_hd__tapvpwrvgnd_1
XTAP_TAPCELL_ROW_0_84 _unconnected_324 _unconnected_325 sky130_fd_sc_hd__tapvpwrvgnd_1
XTAP_TAPCELL_ROW_10_116 _unconnected_326 _unconnected_327
+ sky130_fd_sc_hd__tapvpwrvgnd_1
XTAP_TAPCELL_ROW_10_117 _unconnected_328 _unconnected_329
+ sky130_fd_sc_hd__tapvpwrvgnd_1
XTAP_TAPCELL_ROW_10_118 _unconnected_330 _unconnected_331
+ sky130_fd_sc_hd__tapvpwrvgnd_1
XTAP_TAPCELL_ROW_10_119 _unconnected_332 _unconnected_333
+ sky130_fd_sc_hd__tapvpwrvgnd_1
XTAP_TAPCELL_ROW_11_120 _unconnected_334 _unconnected_335
+ sky130_fd_sc_hd__tapvpwrvgnd_1
XTAP_TAPCELL_ROW_11_121 _unconnected_336 _unconnected_337
+ sky130_fd_sc_hd__tapvpwrvgnd_1
XTAP_TAPCELL_ROW_11_122 _unconnected_338 _unconnected_339
+ sky130_fd_sc_hd__tapvpwrvgnd_1
XTAP_TAPCELL_ROW_12_123 _unconnected_340 _unconnected_341
+ sky130_fd_sc_hd__tapvpwrvgnd_1
XTAP_TAPCELL_ROW_12_124 _unconnected_342 _unconnected_343
+ sky130_fd_sc_hd__tapvpwrvgnd_1
XTAP_TAPCELL_ROW_12_125 _unconnected_344 _unconnected_345
+ sky130_fd_sc_hd__tapvpwrvgnd_1
XTAP_TAPCELL_ROW_12_126 _unconnected_346 _unconnected_347
+ sky130_fd_sc_hd__tapvpwrvgnd_1
XTAP_TAPCELL_ROW_13_127 _unconnected_348 _unconnected_349
+ sky130_fd_sc_hd__tapvpwrvgnd_1
XTAP_TAPCELL_ROW_13_128 _unconnected_350 _unconnected_351
+ sky130_fd_sc_hd__tapvpwrvgnd_1
XTAP_TAPCELL_ROW_13_129 _unconnected_352 _unconnected_353
+ sky130_fd_sc_hd__tapvpwrvgnd_1
XTAP_TAPCELL_ROW_14_130 _unconnected_354 _unconnected_355
+ sky130_fd_sc_hd__tapvpwrvgnd_1
XTAP_TAPCELL_ROW_14_131 _unconnected_356 _unconnected_357
+ sky130_fd_sc_hd__tapvpwrvgnd_1
XTAP_TAPCELL_ROW_14_132 _unconnected_358 _unconnected_359
+ sky130_fd_sc_hd__tapvpwrvgnd_1
XTAP_TAPCELL_ROW_14_133 _unconnected_360 _unconnected_361
+ sky130_fd_sc_hd__tapvpwrvgnd_1
XTAP_TAPCELL_ROW_15_134 _unconnected_362 _unconnected_363
+ sky130_fd_sc_hd__tapvpwrvgnd_1
XTAP_TAPCELL_ROW_15_135 _unconnected_364 _unconnected_365
+ sky130_fd_sc_hd__tapvpwrvgnd_1
XTAP_TAPCELL_ROW_15_136 _unconnected_366 _unconnected_367
+ sky130_fd_sc_hd__tapvpwrvgnd_1
XTAP_TAPCELL_ROW_16_137 _unconnected_368 _unconnected_369
+ sky130_fd_sc_hd__tapvpwrvgnd_1
XTAP_TAPCELL_ROW_16_138 _unconnected_370 _unconnected_371
+ sky130_fd_sc_hd__tapvpwrvgnd_1
XTAP_TAPCELL_ROW_16_139 _unconnected_372 _unconnected_373
+ sky130_fd_sc_hd__tapvpwrvgnd_1
XTAP_TAPCELL_ROW_16_140 _unconnected_374 _unconnected_375
+ sky130_fd_sc_hd__tapvpwrvgnd_1
XTAP_TAPCELL_ROW_17_141 _unconnected_376 _unconnected_377
+ sky130_fd_sc_hd__tapvpwrvgnd_1
XTAP_TAPCELL_ROW_17_142 _unconnected_378 _unconnected_379
+ sky130_fd_sc_hd__tapvpwrvgnd_1
XTAP_TAPCELL_ROW_17_143 _unconnected_380 _unconnected_381
+ sky130_fd_sc_hd__tapvpwrvgnd_1
XTAP_TAPCELL_ROW_18_144 _unconnected_382 _unconnected_383
+ sky130_fd_sc_hd__tapvpwrvgnd_1
XTAP_TAPCELL_ROW_18_145 _unconnected_384 _unconnected_385
+ sky130_fd_sc_hd__tapvpwrvgnd_1
XTAP_TAPCELL_ROW_18_146 _unconnected_386 _unconnected_387
+ sky130_fd_sc_hd__tapvpwrvgnd_1
XTAP_TAPCELL_ROW_18_147 _unconnected_388 _unconnected_389
+ sky130_fd_sc_hd__tapvpwrvgnd_1
XTAP_TAPCELL_ROW_19_148 _unconnected_390 _unconnected_391
+ sky130_fd_sc_hd__tapvpwrvgnd_1
XTAP_TAPCELL_ROW_19_149 _unconnected_392 _unconnected_393
+ sky130_fd_sc_hd__tapvpwrvgnd_1
XTAP_TAPCELL_ROW_19_150 _unconnected_394 _unconnected_395
+ sky130_fd_sc_hd__tapvpwrvgnd_1
XTAP_TAPCELL_ROW_1_85 _unconnected_396 _unconnected_397 sky130_fd_sc_hd__tapvpwrvgnd_1
XTAP_TAPCELL_ROW_1_86 _unconnected_398 _unconnected_399 sky130_fd_sc_hd__tapvpwrvgnd_1
XTAP_TAPCELL_ROW_1_87 _unconnected_400 _unconnected_401 sky130_fd_sc_hd__tapvpwrvgnd_1
XTAP_TAPCELL_ROW_20_151 _unconnected_402 _unconnected_403
+ sky130_fd_sc_hd__tapvpwrvgnd_1
XTAP_TAPCELL_ROW_20_152 _unconnected_404 _unconnected_405
+ sky130_fd_sc_hd__tapvpwrvgnd_1
XTAP_TAPCELL_ROW_20_153 _unconnected_406 _unconnected_407
+ sky130_fd_sc_hd__tapvpwrvgnd_1
XTAP_TAPCELL_ROW_20_154 _unconnected_408 _unconnected_409
+ sky130_fd_sc_hd__tapvpwrvgnd_1
XTAP_TAPCELL_ROW_21_155 _unconnected_410 _unconnected_411
+ sky130_fd_sc_hd__tapvpwrvgnd_1
XTAP_TAPCELL_ROW_21_156 _unconnected_412 _unconnected_413
+ sky130_fd_sc_hd__tapvpwrvgnd_1
XTAP_TAPCELL_ROW_21_157 _unconnected_414 _unconnected_415
+ sky130_fd_sc_hd__tapvpwrvgnd_1
XTAP_TAPCELL_ROW_22_158 _unconnected_416 _unconnected_417
+ sky130_fd_sc_hd__tapvpwrvgnd_1
XTAP_TAPCELL_ROW_22_159 _unconnected_418 _unconnected_419
+ sky130_fd_sc_hd__tapvpwrvgnd_1
XTAP_TAPCELL_ROW_22_160 _unconnected_420 _unconnected_421
+ sky130_fd_sc_hd__tapvpwrvgnd_1
XTAP_TAPCELL_ROW_22_161 _unconnected_422 _unconnected_423
+ sky130_fd_sc_hd__tapvpwrvgnd_1
XTAP_TAPCELL_ROW_23_162 _unconnected_424 _unconnected_425
+ sky130_fd_sc_hd__tapvpwrvgnd_1
XTAP_TAPCELL_ROW_23_163 _unconnected_426 _unconnected_427
+ sky130_fd_sc_hd__tapvpwrvgnd_1
XTAP_TAPCELL_ROW_23_164 _unconnected_428 _unconnected_429
+ sky130_fd_sc_hd__tapvpwrvgnd_1
XTAP_TAPCELL_ROW_24_165 _unconnected_430 _unconnected_431
+ sky130_fd_sc_hd__tapvpwrvgnd_1
XTAP_TAPCELL_ROW_24_166 _unconnected_432 _unconnected_433
+ sky130_fd_sc_hd__tapvpwrvgnd_1
XTAP_TAPCELL_ROW_24_167 _unconnected_434 _unconnected_435
+ sky130_fd_sc_hd__tapvpwrvgnd_1
XTAP_TAPCELL_ROW_24_168 _unconnected_436 _unconnected_437
+ sky130_fd_sc_hd__tapvpwrvgnd_1
XTAP_TAPCELL_ROW_25_169 _unconnected_438 _unconnected_439
+ sky130_fd_sc_hd__tapvpwrvgnd_1
XTAP_TAPCELL_ROW_25_170 _unconnected_440 _unconnected_441
+ sky130_fd_sc_hd__tapvpwrvgnd_1
XTAP_TAPCELL_ROW_25_171 _unconnected_442 _unconnected_443
+ sky130_fd_sc_hd__tapvpwrvgnd_1
XTAP_TAPCELL_ROW_26_172 _unconnected_444 _unconnected_445
+ sky130_fd_sc_hd__tapvpwrvgnd_1
XTAP_TAPCELL_ROW_26_173 _unconnected_446 _unconnected_447
+ sky130_fd_sc_hd__tapvpwrvgnd_1
XTAP_TAPCELL_ROW_26_174 _unconnected_448 _unconnected_449
+ sky130_fd_sc_hd__tapvpwrvgnd_1
XTAP_TAPCELL_ROW_26_175 _unconnected_450 _unconnected_451
+ sky130_fd_sc_hd__tapvpwrvgnd_1
XTAP_TAPCELL_ROW_27_176 _unconnected_452 _unconnected_453
+ sky130_fd_sc_hd__tapvpwrvgnd_1
XTAP_TAPCELL_ROW_27_177 _unconnected_454 _unconnected_455
+ sky130_fd_sc_hd__tapvpwrvgnd_1
XTAP_TAPCELL_ROW_27_178 _unconnected_456 _unconnected_457
+ sky130_fd_sc_hd__tapvpwrvgnd_1
XTAP_TAPCELL_ROW_28_179 _unconnected_458 _unconnected_459
+ sky130_fd_sc_hd__tapvpwrvgnd_1
XTAP_TAPCELL_ROW_28_180 _unconnected_460 _unconnected_461
+ sky130_fd_sc_hd__tapvpwrvgnd_1
XTAP_TAPCELL_ROW_28_181 _unconnected_462 _unconnected_463
+ sky130_fd_sc_hd__tapvpwrvgnd_1
XTAP_TAPCELL_ROW_28_182 _unconnected_464 _unconnected_465
+ sky130_fd_sc_hd__tapvpwrvgnd_1
XTAP_TAPCELL_ROW_29_183 _unconnected_466 _unconnected_467
+ sky130_fd_sc_hd__tapvpwrvgnd_1
XTAP_TAPCELL_ROW_29_184 _unconnected_468 _unconnected_469
+ sky130_fd_sc_hd__tapvpwrvgnd_1
XTAP_TAPCELL_ROW_29_185 _unconnected_470 _unconnected_471
+ sky130_fd_sc_hd__tapvpwrvgnd_1
XTAP_TAPCELL_ROW_2_88 _unconnected_472 _unconnected_473 sky130_fd_sc_hd__tapvpwrvgnd_1
XTAP_TAPCELL_ROW_2_89 _unconnected_474 _unconnected_475 sky130_fd_sc_hd__tapvpwrvgnd_1
XTAP_TAPCELL_ROW_2_90 _unconnected_476 _unconnected_477 sky130_fd_sc_hd__tapvpwrvgnd_1
XTAP_TAPCELL_ROW_2_91 _unconnected_478 _unconnected_479 sky130_fd_sc_hd__tapvpwrvgnd_1
XTAP_TAPCELL_ROW_30_186 _unconnected_480 _unconnected_481
+ sky130_fd_sc_hd__tapvpwrvgnd_1
XTAP_TAPCELL_ROW_30_187 _unconnected_482 _unconnected_483
+ sky130_fd_sc_hd__tapvpwrvgnd_1
XTAP_TAPCELL_ROW_30_188 _unconnected_484 _unconnected_485
+ sky130_fd_sc_hd__tapvpwrvgnd_1
XTAP_TAPCELL_ROW_30_189 _unconnected_486 _unconnected_487
+ sky130_fd_sc_hd__tapvpwrvgnd_1
XTAP_TAPCELL_ROW_31_190 _unconnected_488 _unconnected_489
+ sky130_fd_sc_hd__tapvpwrvgnd_1
XTAP_TAPCELL_ROW_31_191 _unconnected_490 _unconnected_491
+ sky130_fd_sc_hd__tapvpwrvgnd_1
XTAP_TAPCELL_ROW_31_192 _unconnected_492 _unconnected_493
+ sky130_fd_sc_hd__tapvpwrvgnd_1
XTAP_TAPCELL_ROW_32_193 _unconnected_494 _unconnected_495
+ sky130_fd_sc_hd__tapvpwrvgnd_1
XTAP_TAPCELL_ROW_32_194 _unconnected_496 _unconnected_497
+ sky130_fd_sc_hd__tapvpwrvgnd_1
XTAP_TAPCELL_ROW_32_195 _unconnected_498 _unconnected_499
+ sky130_fd_sc_hd__tapvpwrvgnd_1
XTAP_TAPCELL_ROW_32_196 _unconnected_500 _unconnected_501
+ sky130_fd_sc_hd__tapvpwrvgnd_1
XTAP_TAPCELL_ROW_33_197 _unconnected_502 _unconnected_503
+ sky130_fd_sc_hd__tapvpwrvgnd_1
XTAP_TAPCELL_ROW_33_198 _unconnected_504 _unconnected_505
+ sky130_fd_sc_hd__tapvpwrvgnd_1
XTAP_TAPCELL_ROW_33_199 _unconnected_506 _unconnected_507
+ sky130_fd_sc_hd__tapvpwrvgnd_1
XTAP_TAPCELL_ROW_34_200 _unconnected_508 _unconnected_509
+ sky130_fd_sc_hd__tapvpwrvgnd_1
XTAP_TAPCELL_ROW_34_201 _unconnected_510 _unconnected_511
+ sky130_fd_sc_hd__tapvpwrvgnd_1
XTAP_TAPCELL_ROW_34_202 _unconnected_512 _unconnected_513
+ sky130_fd_sc_hd__tapvpwrvgnd_1
XTAP_TAPCELL_ROW_34_203 _unconnected_514 _unconnected_515
+ sky130_fd_sc_hd__tapvpwrvgnd_1
XTAP_TAPCELL_ROW_35_204 _unconnected_516 _unconnected_517
+ sky130_fd_sc_hd__tapvpwrvgnd_1
XTAP_TAPCELL_ROW_35_205 _unconnected_518 _unconnected_519
+ sky130_fd_sc_hd__tapvpwrvgnd_1
XTAP_TAPCELL_ROW_35_206 _unconnected_520 _unconnected_521
+ sky130_fd_sc_hd__tapvpwrvgnd_1
XTAP_TAPCELL_ROW_36_207 _unconnected_522 _unconnected_523
+ sky130_fd_sc_hd__tapvpwrvgnd_1
XTAP_TAPCELL_ROW_36_208 _unconnected_524 _unconnected_525
+ sky130_fd_sc_hd__tapvpwrvgnd_1
XTAP_TAPCELL_ROW_36_209 _unconnected_526 _unconnected_527
+ sky130_fd_sc_hd__tapvpwrvgnd_1
XTAP_TAPCELL_ROW_36_210 _unconnected_528 _unconnected_529
+ sky130_fd_sc_hd__tapvpwrvgnd_1
XTAP_TAPCELL_ROW_37_211 _unconnected_530 _unconnected_531
+ sky130_fd_sc_hd__tapvpwrvgnd_1
XTAP_TAPCELL_ROW_37_212 _unconnected_532 _unconnected_533
+ sky130_fd_sc_hd__tapvpwrvgnd_1
XTAP_TAPCELL_ROW_37_213 _unconnected_534 _unconnected_535
+ sky130_fd_sc_hd__tapvpwrvgnd_1
XTAP_TAPCELL_ROW_38_214 _unconnected_536 _unconnected_537
+ sky130_fd_sc_hd__tapvpwrvgnd_1
XTAP_TAPCELL_ROW_38_215 _unconnected_538 _unconnected_539
+ sky130_fd_sc_hd__tapvpwrvgnd_1
XTAP_TAPCELL_ROW_38_216 _unconnected_540 _unconnected_541
+ sky130_fd_sc_hd__tapvpwrvgnd_1
XTAP_TAPCELL_ROW_38_217 _unconnected_542 _unconnected_543
+ sky130_fd_sc_hd__tapvpwrvgnd_1
XTAP_TAPCELL_ROW_38_218 _unconnected_544 _unconnected_545
+ sky130_fd_sc_hd__tapvpwrvgnd_1
XTAP_TAPCELL_ROW_38_219 _unconnected_546 _unconnected_547
+ sky130_fd_sc_hd__tapvpwrvgnd_1
XTAP_TAPCELL_ROW_38_220 _unconnected_548 _unconnected_549
+ sky130_fd_sc_hd__tapvpwrvgnd_1
XTAP_TAPCELL_ROW_3_92 _unconnected_550 _unconnected_551 sky130_fd_sc_hd__tapvpwrvgnd_1
XTAP_TAPCELL_ROW_3_93 _unconnected_552 _unconnected_553 sky130_fd_sc_hd__tapvpwrvgnd_1
XTAP_TAPCELL_ROW_3_94 _unconnected_554 _unconnected_555 sky130_fd_sc_hd__tapvpwrvgnd_1
XTAP_TAPCELL_ROW_4_95 _unconnected_556 _unconnected_557 sky130_fd_sc_hd__tapvpwrvgnd_1
XTAP_TAPCELL_ROW_4_96 _unconnected_558 _unconnected_559 sky130_fd_sc_hd__tapvpwrvgnd_1
XTAP_TAPCELL_ROW_4_97 _unconnected_560 _unconnected_561 sky130_fd_sc_hd__tapvpwrvgnd_1
XTAP_TAPCELL_ROW_4_98 _unconnected_562 _unconnected_563 sky130_fd_sc_hd__tapvpwrvgnd_1
XTAP_TAPCELL_ROW_5_100 _unconnected_564 _unconnected_565 sky130_fd_sc_hd__tapvpwrvgnd_1
XTAP_TAPCELL_ROW_5_101 _unconnected_566 _unconnected_567 sky130_fd_sc_hd__tapvpwrvgnd_1
XTAP_TAPCELL_ROW_5_99 _unconnected_568 _unconnected_569 sky130_fd_sc_hd__tapvpwrvgnd_1
XTAP_TAPCELL_ROW_6_102 _unconnected_570 _unconnected_571 sky130_fd_sc_hd__tapvpwrvgnd_1
XTAP_TAPCELL_ROW_6_103 _unconnected_572 _unconnected_573 sky130_fd_sc_hd__tapvpwrvgnd_1
XTAP_TAPCELL_ROW_6_104 _unconnected_574 _unconnected_575 sky130_fd_sc_hd__tapvpwrvgnd_1
XTAP_TAPCELL_ROW_6_105 _unconnected_576 _unconnected_577 sky130_fd_sc_hd__tapvpwrvgnd_1
XTAP_TAPCELL_ROW_7_106 _unconnected_578 _unconnected_579 sky130_fd_sc_hd__tapvpwrvgnd_1
XTAP_TAPCELL_ROW_7_107 _unconnected_580 _unconnected_581 sky130_fd_sc_hd__tapvpwrvgnd_1
XTAP_TAPCELL_ROW_7_108 _unconnected_582 _unconnected_583 sky130_fd_sc_hd__tapvpwrvgnd_1
XTAP_TAPCELL_ROW_8_109 _unconnected_584 _unconnected_585 sky130_fd_sc_hd__tapvpwrvgnd_1
XTAP_TAPCELL_ROW_8_110 _unconnected_586 _unconnected_587 sky130_fd_sc_hd__tapvpwrvgnd_1
XTAP_TAPCELL_ROW_8_111 _unconnected_588 _unconnected_589 sky130_fd_sc_hd__tapvpwrvgnd_1
XTAP_TAPCELL_ROW_8_112 _unconnected_590 _unconnected_591 sky130_fd_sc_hd__tapvpwrvgnd_1
XTAP_TAPCELL_ROW_9_113 _unconnected_592 _unconnected_593 sky130_fd_sc_hd__tapvpwrvgnd_1
XTAP_TAPCELL_ROW_9_114 _unconnected_594 _unconnected_595 sky130_fd_sc_hd__tapvpwrvgnd_1
XTAP_TAPCELL_ROW_9_115 _unconnected_596 _unconnected_597 sky130_fd_sc_hd__tapvpwrvgnd_1
X_161_ rd_ptr[0] wr_ptr[0] VSS _unconnected_598 _unconnected_599
+ VDD _45_ sky130_fd_sc_hd__xor2_1
X_162_ rd_ptr[1] wr_ptr[1] VSS _unconnected_600 _unconnected_601
+ VDD _46_ sky130_fd_sc_hd__xor2_1
X_163_ rd_ptr[3] wr_ptr[3] VSS _unconnected_602 _unconnected_603
+ VDD _47_ sky130_fd_sc_hd__xor2_1
X_164_ wr_ptr[2] rd_ptr[2] VSS _unconnected_604 _unconnected_605
+ VDD _48_ sky130_fd_sc_hd__xor2_1
X_165_ _45_ _46_ _47_ _48_ VSS _unconnected_606 _unconnected_607
+ VDD _49_ sky130_fd_sc_hd__nor4_1
X_166_ rd_ptr[4] wr_ptr[4] VSS _unconnected_608 _unconnected_609
+ VDD _50_ sky130_fd_sc_hd__xnor2_1
X_167_ rd_ptr[4] wr_ptr[4] VSS _unconnected_610 _unconnected_611
+ VDD _51_ sky130_fd_sc_hd__xor2_1
X_168_ _49_ _50_ VSS _unconnected_612 _unconnected_613 VDD
+ empty sky130_fd_sc_hd__and2_0
X_169_ _49_ _50_ rd_en VSS _unconnected_614 _unconnected_615
+ VDD _52_ sky130_fd_sc_hd__a21boi_0
X_170_ dout[6] net29 VSS _unconnected_616 _unconnected_617
+ VDD _53_ sky130_fd_sc_hd__nor2_1
X_171_ rd_ptr[1] rd_ptr[0] rd_ptr[3] rd_ptr[2] VSS _unconnected_618
+ _unconnected_619 VDD _54_ sky130_fd_sc_hd__nor4bb_1
X_172_ rd_ptr[1] rd_ptr[0] rd_ptr[2] rd_ptr[3] VSS _unconnected_620
+ _unconnected_621 VDD _55_ sky130_fd_sc_hd__nor4b_1
X_173_ rd_ptr[1] rd_ptr[2] rd_ptr[3] rd_ptr[0] VSS _unconnected_622
+ _unconnected_623 VDD _56_ sky130_fd_sc_hd__nor4bb_1
X_174_ rd_ptr[0] rd_ptr[3] rd_ptr[2] rd_ptr[1] VSS _unconnected_624
+ _unconnected_625 VDD _57_ sky130_fd_sc_hd__and4b_1
X_175_ rd_ptr[3] rd_ptr[2] rd_ptr[1] rd_ptr[0] VSS _unconnected_626
+ _unconnected_627 VDD _58_ sky130_fd_sc_hd__nor4bb_1
X_176_ mem\[3\][6] net36 VSS _unconnected_628 _unconnected_629
+ VDD _59_ sky130_fd_sc_hd__nand2_1
X_177_ rd_ptr[1] rd_ptr[0] rd_ptr[3] rd_ptr[2] VSS _unconnected_630
+ _unconnected_631 VDD _60_ sky130_fd_sc_hd__and4b_1
X_178_ rd_ptr[1] rd_ptr[0] rd_ptr[3] rd_ptr[2] VSS _unconnected_632
+ _unconnected_633 VDD _61_ sky130_fd_sc_hd__nor4b_1
X_179_ rd_ptr[0] rd_ptr[3] rd_ptr[2] rd_ptr[1] VSS _unconnected_634
+ _unconnected_635 VDD _62_ sky130_fd_sc_hd__nor4b_1
X_180_ rd_ptr[0] rd_ptr[3] rd_ptr[2] rd_ptr[1] VSS _unconnected_636
+ _unconnected_637 VDD _63_ sky130_fd_sc_hd__nor4bb_1
X_181_ rd_ptr[1] rd_ptr[3] rd_ptr[2] rd_ptr[0] VSS _unconnected_638
+ _unconnected_639 VDD _64_ sky130_fd_sc_hd__nor4bb_1
X_182_ rd_ptr[2] rd_ptr[3] rd_ptr[0] rd_ptr[1] VSS _unconnected_640
+ _unconnected_641 VDD _65_ sky130_fd_sc_hd__and4b_1
X_183_ rd_ptr[0] rd_ptr[2] rd_ptr[3] rd_ptr[1] VSS _unconnected_642
+ _unconnected_643 VDD _66_ sky130_fd_sc_hd__nor4bb_1
X_184_ rd_ptr[1] rd_ptr[0] rd_ptr[3] rd_ptr[2] VSS _unconnected_644
+ _unconnected_645 VDD _67_ sky130_fd_sc_hd__and4_1
X_185_ rd_ptr[1] rd_ptr[0] rd_ptr[3] rd_ptr[2] VSS _unconnected_646
+ _unconnected_647 VDD _68_ sky130_fd_sc_hd__nor4_2
X_186_ rd_ptr[3] rd_ptr[2] rd_ptr[1] rd_ptr[0] VSS _unconnected_648
+ _unconnected_649 VDD _69_ sky130_fd_sc_hd__and4b_1
X_187_ rd_ptr[1] rd_ptr[3] rd_ptr[2] rd_ptr[0] VSS _unconnected_650
+ _unconnected_651 VDD _70_ sky130_fd_sc_hd__nor4b_1
X_188_ mem\[12\][6] net39 net34 mem\[2\][6] _68_ net43 VSS
+ _unconnected_652 _unconnected_653 VDD _71_ sky130_fd_sc_hd__a222oi_1
X_189_ mem\[8\][6] net38 net35 mem\[4\][6] VSS _unconnected_654
+ _unconnected_655 VDD _72_ sky130_fd_sc_hd__a22oi_1
X_190_ mem\[9\][6] net37 _67_ mem\[15\][6] _60_ mem\[13\][6]
+ VSS _unconnected_656 _unconnected_657 VDD _73_ sky130_fd_sc_hd__a222oi_1
X_191_ mem\[5\][6] net32 net30 mem\[1\][6] VSS _unconnected_658
+ _unconnected_659 VDD _74_ sky130_fd_sc_hd__a22o_1
X_192_ mem\[6\][6] net33 _69_ mem\[7\][6] _74_ VSS _unconnected_660
+ _unconnected_661 VDD _75_ sky130_fd_sc_hd__a221oi_1
X_193_ mem\[14\][6] _57_ _65_ mem\[11\][6] net31 mem\[10\][6]
+ VSS _unconnected_662 _unconnected_663 VDD _76_ sky130_fd_sc_hd__a222oi_1
X_194_ _59_ _73_ _75_ _76_ VSS _unconnected_664 _unconnected_665
+ VDD _77_ sky130_fd_sc_hd__and4_1
X_195_ net29 net44 _72_ _77_ _53_ VSS _unconnected_666 _unconnected_667
+ VDD _11_ sky130_fd_sc_hd__a41oi_1
X_196_ dout[5] net29 VSS _unconnected_668 _unconnected_669
+ VDD _78_ sky130_fd_sc_hd__nor2_1
X_197_ net46 net38 VSS _unconnected_670 _unconnected_671 VDD
+ _79_ sky130_fd_sc_hd__nand2_1
X_198_ mem\[2\][5] net34 _68_ mem\[0\][5] net31 mem\[10\][5]
+ VSS _unconnected_672 _unconnected_673 VDD _80_ sky130_fd_sc_hd__a222oi_1
X_199_ _79_ _80_ VSS _unconnected_674 _unconnected_675 VDD
+ _81_ sky130_fd_sc_hd__nand2_1
X_200_ mem\[6\][5] net33 net32 mem\[5\][5] net30 mem\[1\][5]
+ VSS _unconnected_676 _unconnected_677 VDD _82_ sky130_fd_sc_hd__a222oi_1
X_201_ mem\[14\][5] _57_ _60_ mem\[13\][5] net35 mem\[4\][5]
+ VSS _unconnected_678 _unconnected_679 VDD _83_ sky130_fd_sc_hd__a222oi_1
X_202_ mem\[12\][5] net39 _69_ mem\[7\][5] _67_ mem\[15\][5]
+ VSS _unconnected_680 _unconnected_681 VDD _84_ sky130_fd_sc_hd__a222oi_1
X_203_ mem\[9\][5] net37 net36 mem\[3\][5] _65_ mem\[11\][5]
+ VSS _unconnected_682 _unconnected_683 VDD _85_ sky130_fd_sc_hd__a222oi_1
X_204_ _82_ _83_ _84_ _85_ VSS _unconnected_684 _unconnected_685
+ VDD _86_ sky130_fd_sc_hd__nand4_1
X_205_ net47 _86_ VSS _unconnected_686 _unconnected_687 VDD
+ _87_ sky130_fd_sc_hd__nor2_1
X_206_ net29 net48 _78_ VSS _unconnected_688 _unconnected_689
+ VDD _44_ sky130_fd_sc_hd__a21oi_1
X_207_ dout[4] net29 VSS _unconnected_690 _unconnected_691
+ VDD _88_ sky130_fd_sc_hd__nor2_1
X_208_ mem\[15\][4] _67_ VSS _unconnected_692 _unconnected_693
+ VDD _89_ sky130_fd_sc_hd__nand2_1
X_209_ mem\[6\][4] net33 _68_ mem\[0\][4] _69_ mem\[7\][4]
+ VSS _unconnected_694 _unconnected_695 VDD _90_ sky130_fd_sc_hd__a222oi_1
X_210_ mem\[3\][4] net36 net30 mem\[1\][4] net32 mem\[5\][4]
+ VSS _unconnected_696 _unconnected_697 VDD _91_ sky130_fd_sc_hd__a222oi_1
X_211_ mem\[14\][4] _57_ net34 mem\[2\][4] VSS _unconnected_698
+ _unconnected_699 VDD _92_ sky130_fd_sc_hd__a22oi_1
X_212_ _90_ _91_ _92_ VSS _unconnected_700 _unconnected_701
+ VDD _93_ sky130_fd_sc_hd__nand3_1
X_213_ mem\[13\][4] _60_ net35 mem\[4\][4] net31 mem\[10\][4]
+ VSS _unconnected_702 _unconnected_703 VDD _94_ sky130_fd_sc_hd__a222oi_1
X_214_ net58 net38 _65_ mem\[11\][4] VSS _unconnected_704
+ _unconnected_705 VDD _95_ sky130_fd_sc_hd__a22oi_1
X_215_ mem\[12\][4] net39 net37 mem\[9\][4] VSS _unconnected_706
+ _unconnected_707 VDD _96_ sky130_fd_sc_hd__a22oi_1
X_216_ _89_ _94_ _95_ _96_ VSS _unconnected_708 _unconnected_709
+ VDD _97_ sky130_fd_sc_hd__nand4_1
X_217_ _93_ net59 VSS _unconnected_710 _unconnected_711 VDD
+ _98_ sky130_fd_sc_hd__nor2_1
X_218_ net29 net60 _88_ VSS _unconnected_712 _unconnected_713
+ VDD _42_ sky130_fd_sc_hd__a21oi_1
X_219_ mem\[3\][3] net36 net35 mem\[4\][3] VSS _unconnected_714
+ _unconnected_715 VDD _99_ sky130_fd_sc_hd__a22oi_1
X_220_ net40 net38 VSS _unconnected_716 _unconnected_717 VDD
+ _100_ sky130_fd_sc_hd__nand2_1
X_221_ mem\[12\][3] net39 net37 mem\[9\][3] VSS _unconnected_718
+ _unconnected_719 VDD _101_ sky130_fd_sc_hd__a22oi_1
X_222_ mem\[11\][3] _65_ net31 mem\[10\][3] VSS _unconnected_720
+ _unconnected_721 VDD _102_ sky130_fd_sc_hd__a22oi_1
X_223_ mem\[5\][3] net32 _68_ mem\[0\][3] net30 mem\[1\][3]
+ VSS _unconnected_722 _unconnected_723 VDD _103_ sky130_fd_sc_hd__a222oi_1
X_224_ _99_ _103_ VSS _unconnected_724 _unconnected_725 VDD
+ _104_ sky130_fd_sc_hd__nand2_1
X_225_ _100_ _101_ _102_ VSS _unconnected_726 _unconnected_727
+ VDD _105_ sky130_fd_sc_hd__nand3_1
X_226_ mem\[13\][3] _60_ net34 mem\[2\][3] _69_ mem\[7\][3]
+ VSS _unconnected_728 _unconnected_729 VDD _106_ sky130_fd_sc_hd__a222oi_1
X_227_ mem\[14\][3] _57_ net33 mem\[6\][3] _67_ mem\[15\][3]
+ VSS _unconnected_730 _unconnected_731 VDD _107_ sky130_fd_sc_hd__a222oi_1