*SPEF "ieee 1481-1999"
*DESIGN "Sync_FIFO_async_rst"
*DATE "18:19:57 Sunday May 31, 2026"
*VENDOR "The OpenROAD Project"
*PROGRAM "OpenROAD"
*VERSION "26Q2-565-g927ca5dfef"
*DESIGN_FLOW "NAME_SCOPE LOCAL" "PIN_CAP NONE"
*DIVIDER /
*DELIMITER :
*BUS_DELIMITER []
*T_UNIT 1 NS
*C_UNIT 1 PF
*R_UNIT 1 OHM
*L_UNIT 1 HENRY

*NAME_MAP
*1 _0_
*2 _100_
*3 _101_
*4 _102_
*5 _103_
*6 _104_
*7 _105_
*8 _106_
*9 _107_
*10 _108_
*11 _109_
*12 _10_
*13 _110_
*14 _111_
*15 _112_
*16 _113_
*17 _114_
*18 _115_
*19 _116_
*20 _117_
*21 _118_
*22 _119_
*23 _11_
*24 _120_
*25 _121_
*26 _122_
*27 _123_
*28 _124_
*29 _125_
*30 _126_
*31 _127_
*32 _128_
*33 _129_
*34 _12_
*35 _130_
*36 _131_
*37 _132_
*38 _133_
*39 _134_
*40 _135_
*41 _136_
*42 _137_
*43 _138_
*44 _139_
*45 _13_
*46 _140_
*47 _141_
*48 _142_
*49 _143_
*50 _144_
*51 _145_
*52 _146_
*53 _147_
*54 _148_
*55 _149_
*56 _14_
*57 _150_
*58 _151_
*59 _152_
*60 _153_
*61 _154_
*62 _155_
*63 _156_
*64 _157_
*65 _158_
*66 _159_
*67 _15_
*68 _160_
*69 _16_
*70 _17_
*71 _18_
*72 _19_
*73 _1_
*74 _20_
*75 _21_
*76 _22_
*77 _23_
*78 _24_
*79 _25_
*80 _26_
*81 _27_
*82 _28_
*83 _29_
*84 _2_
*85 _30_
*86 _31_
*87 _32_
*88 _33_
*89 _34_
*90 _35_
*91 _36_
*92 _37_
*93 _38_
*94 _39_
*95 _3_
*96 _40_
*97 _41_
*98 _42_
*99 _43_
*100 _44_
*101 _45_
*102 _46_
*103 _47_
*104 _48_
*105 _49_
*106 _4_
*107 _50_
*108 _51_
*109 _52_
*110 _53_
*111 _54_
*112 _55_
*113 _56_
*114 _57_
*115 _58_
*116 _59_
*117 _5_
*118 _60_
*119 _61_
*120 _62_
*121 _63_
*122 _64_
*123 _65_
*124 _66_
*125 _67_
*126 _68_
*127 _69_
*128 _6_
*129 _70_
*130 _71_
*131 _72_
*132 _73_
*133 _74_
*134 _75_
*135 _76_
*136 _77_
*137 _78_
*138 _79_
*139 _7_
*140 _80_
*141 _81_
*142 _82_
*143 _83_
*144 _84_
*145 _85_
*146 _86_
*147 _87_
*148 _88_
*149 _89_
*150 _8_
*151 _90_
*152 _91_
*153 _92_
*154 _93_
*155 _94_
*156 _95_
*157 _96_
*158 _97_
*159 _98_
*160 _99_
*161 _9_
*162 clk
*343 clknet_0_clk
*333 clknet_4_0_0_clk
*354 clknet_4_10_0_clk
*355 clknet_4_11_0_clk
*356 clknet_4_12_0_clk
*357 clknet_4_13_0_clk
*358 clknet_4_14_0_clk
*359 clknet_4_15_0_clk
*345 clknet_4_1_0_clk
*346 clknet_4_2_0_clk
*347 clknet_4_3_0_clk
*348 clknet_4_4_0_clk
*349 clknet_4_5_0_clk
*350 clknet_4_6_0_clk
*351 clknet_4_7_0_clk
*352 clknet_4_8_0_clk
*353 clknet_4_9_0_clk
*163 din[0]
*164 din[1]
*165 din[2]
*166 din[3]
*167 din[4]
*168 din[5]
*169 din[6]
*170 din[7]
*171 dout[0]
*172 dout[1]
*173 dout[2]
*174 dout[3]
*175 dout[4]
*176 dout[5]
*177 dout[6]
*178 dout[7]
*179 empty
*180 full
*181 mem\[0\][0]
*182 mem\[0\][1]
*183 mem\[0\][2]
*184 mem\[0\][3]
*185 mem\[0\][4]
*186 mem\[0\][5]
*187 mem\[0\][6]
*188 mem\[0\][7]
*189 mem\[10\][0]
*190 mem\[10\][1]
*191 mem\[10\][2]
*192 mem\[10\][3]
*193 mem\[10\][4]
*194 mem\[10\][5]
*195 mem\[10\][6]
*196 mem\[10\][7]
*197 mem\[11\][0]
*198 mem\[11\][1]
*199 mem\[11\][2]
*200 mem\[11\][3]
*201 mem\[11\][4]
*202 mem\[11\][5]
*203 mem\[11\][6]
*204 mem\[11\][7]
*205 mem\[12\][0]
*206 mem\[12\][1]
*207 mem\[12\][2]
*208 mem\[12\][3]
*209 mem\[12\][4]
*210 mem\[12\][5]
*211 mem\[12\][6]
*212 mem\[12\][7]
*213 mem\[13\][0]
*214 mem\[13\][1]
*215 mem\[13\][2]
*216 mem\[13\][3]
*217 mem\[13\][4]
*218 mem\[13\][5]
*219 mem\[13\][6]
*220 mem\[13\][7]
*221 mem\[14\][0]
*222 mem\[14\][1]
*223 mem\[14\][2]
*224 mem\[14\][3]
*225 mem\[14\][4]
*226 mem\[14\][5]
*227 mem\[14\][6]
*228 mem\[14\][7]
*229 mem\[15\][0]
*230 mem\[15\][1]
*231 mem\[15\][2]
*232 mem\[15\][3]
*233 mem\[15\][4]
*234 mem\[15\][5]
*235 mem\[15\][6]
*236 mem\[15\][7]
*237 mem\[1\][0]
*238 mem\[1\][1]
*239 mem\[1\][2]
*240 mem\[1\][3]
*241 mem\[1\][4]
*242 mem\[1\][5]
*243 mem\[1\][6]
*244 mem\[1\][7]
*245 mem\[2\][0]
*246 mem\[2\][1]
*247 mem\[2\][2]
*248 mem\[2\][3]
*249 mem\[2\][4]
*250 mem\[2\][5]
*251 mem\[2\][6]
*252 mem\[2\][7]
*253 mem\[3\][0]
*254 mem\[3\][1]
*255 mem\[3\][2]
*256 mem\[3\][3]
*257 mem\[3\][4]
*258 mem\[3\][5]
*259 mem\[3\][6]
*260 mem\[3\][7]
*261 mem\[4\][0]
*262 mem\[4\][1]
*263 mem\[4\][2]
*264 mem\[4\][3]
*265 mem\[4\][4]
*266 mem\[4\][5]
*267 mem\[4\][6]
*268 mem\[4\][7]
*269 mem\[5\][0]
*270 mem\[5\][1]
*271 mem\[5\][2]
*272 mem\[5\][3]
*273 mem\[5\][4]
*274 mem\[5\][5]
*275 mem\[5\][6]
*276 mem\[5\][7]
*277 mem\[6\][0]
*278 mem\[6\][1]
*279 mem\[6\][2]
*280 mem\[6\][3]
*281 mem\[6\][4]
*282 mem\[6\][5]
*283 mem\[6\][6]
*284 mem\[6\][7]
*285 mem\[7\][0]
*286 mem\[7\][1]
*287 mem\[7\][2]
*288 mem\[7\][3]
*289 mem\[7\][4]
*290 mem\[7\][5]
*291 mem\[7\][6]
*292 mem\[7\][7]
*293 mem\[8\][0]
*294 mem\[8\][1]
*295 mem\[8\][2]
*296 mem\[8\][3]
*297 mem\[8\][4]
*298 mem\[8\][5]
*299 mem\[8\][6]
*300 mem\[8\][7]
*301 mem\[9\][0]
*302 mem\[9\][1]
*303 mem\[9\][2]
*304 mem\[9\][3]
*305 mem\[9\][4]
*306 mem\[9\][5]
*307 mem\[9\][6]
*308 mem\[9\][7]
*324 net21
*344 net22
*325 net23
*326 net24
*327 net25
*329 net26
*330 net27
*331 net28
*328 net29
*332 net30
*334 net31
*335 net32
*336 net33
*337 net34
*338 net35
*339 net36
*340 net37
*341 net38
*342 net39
*360 net40
*361 net41
*362 net42
*363 net43
*364 net44
*365 net45
*366 net46
*367 net47
*368 net48
*369 net49
*370 net50
*371 net51
*372 net52
*373 net53
*374 net54
*375 net55
*376 net56
*377 net57
*378 net58
*379 net59
*380 net60
*381 net61
*382 net62
*383 net63
*384 net64
*385 net65
*386 net66
*309 rd_en
*310 rd_ptr[0]
*311 rd_ptr[1]
*312 rd_ptr[2]
*313 rd_ptr[3]
*314 rd_ptr[4]
*315 rst
*316 wr_en
*317 wr_ptr[0]
*318 wr_ptr[1]
*319 wr_ptr[2]
*320 wr_ptr[3]
*321 wr_ptr[4]
*1892 FILLER_0_105
*1902 FILLER_0_11
*1891 FILLER_0_113
*1890 FILLER_0_121
*1889 FILLER_0_125
*1888 FILLER_0_127
*1887 FILLER_0_129
*1886 FILLER_0_137
*1885 FILLER_0_145
*1884 FILLER_0_153
*1883 FILLER_0_157
*1882 FILLER_0_159
*1881 FILLER_0_161
*1880 FILLER_0_169
*1879 FILLER_0_177
*1878 FILLER_0_185
*1877 FILLER_0_189
*1876 FILLER_0_191
*1875 FILLER_0_193
*1874 FILLER_0_201
*1873 FILLER_0_209
*1872 FILLER_0_217
*1871 FILLER_0_221
*1870 FILLER_0_223
*1869 FILLER_0_225
*1868 FILLER_0_233
*1903 FILLER_0_3
*1901 FILLER_0_33
*1900 FILLER_0_41
*1899 FILLER_0_56
*1898 FILLER_0_65
*1897 FILLER_0_73
*1896 FILLER_0_82
*1895 FILLER_0_90
*1894 FILLER_0_94
*1893 FILLER_0_97
*1634 FILLER_10_100
*1633 FILLER_10_113
*1632 FILLER_10_138
*1631 FILLER_10_146
*1630 FILLER_10_154
*1629 FILLER_10_163
*1628 FILLER_10_171
*1627 FILLER_10_179
*1626 FILLER_10_187
*1625 FILLER_10_195
*1624 FILLER_10_203
*1623 FILLER_10_211
*1622 FILLER_10_219
*1621 FILLER_10_228
*1620 FILLER_10_232
*1619 FILLER_10_234
*1639 FILLER_10_28
*1640 FILLER_10_3
*1638 FILLER_10_60
*1637 FILLER_10_86
*1636 FILLER_10_88
*1635 FILLER_10_98
*1611 FILLER_11_107
*1610 FILLER_11_115
*1609 FILLER_11_123
*1608 FILLER_11_127
*1607 FILLER_11_129
*1606 FILLER_11_131
*1605 FILLER_11_147
*1604 FILLER_11_155
*1603 FILLER_11_159
*1602 FILLER_11_190
*1601 FILLER_11_194
*1600 FILLER_11_196
*1599 FILLER_11_200
*1598 FILLER_11_226
*1597 FILLER_11_234
*1618 FILLER_11_27
*1617 FILLER_11_35
*1616 FILLER_11_37
*1615 FILLER_11_62
*1614 FILLER_11_64
*1613 FILLER_11_66
*1612 FILLER_11_74
*1582 FILLER_12_106
*1581 FILLER_12_114
*1580 FILLER_12_116
*1579 FILLER_12_141
*1578 FILLER_12_149
*1577 FILLER_12_157
*1576 FILLER_12_161
*1575 FILLER_12_163
*1574 FILLER_12_165
*1573 FILLER_12_214
*1572 FILLER_12_218
*1571 FILLER_12_226
*1570 FILLER_12_228
*1569 FILLER_12_232
*1568 FILLER_12_234
*1596 FILLER_12_3
*1595 FILLER_12_31
*1594 FILLER_12_33
*1593 FILLER_12_37
*1592 FILLER_12_46
*1591 FILLER_12_50
*1590 FILLER_12_60
*1589 FILLER_12_68
*1588 FILLER_12_76
*1587 FILLER_12_84
*1586 FILLER_12_88
*1585 FILLER_12_94
*1584 FILLER_12_96
*1583 FILLER_12_98
*1566 FILLER_13_11
*1557 FILLER_13_112
*1556 FILLER_13_120
*1555 FILLER_13_128
*1554 FILLER_13_131
*1553 FILLER_13_139
*1552 FILLER_13_143
*1551 FILLER_13_147
*1550 FILLER_13_149
*1565 FILLER_13_15
*1549 FILLER_13_174
*1548 FILLER_13_182
*1547 FILLER_13_190
*1546 FILLER_13_194
*1545 FILLER_13_200
*1544 FILLER_13_202
*1543 FILLER_13_227
*1564 FILLER_13_23
*1567 FILLER_13_3
*1563 FILLER_13_49
*1562 FILLER_13_57
*1561 FILLER_13_66
*1560 FILLER_13_74
*1559 FILLER_13_82
*1558 FILLER_13_86
*1533 FILLER_14_106
*1532 FILLER_14_114
*1531 FILLER_14_122
*1530 FILLER_14_130
*1529 FILLER_14_138
*1528 FILLER_14_160
*1527 FILLER_14_163
*1526 FILLER_14_171
*1525 FILLER_14_173
*1524 FILLER_14_182
*1523 FILLER_14_214
*1522 FILLER_14_226
*1521 FILLER_14_228
*1520 FILLER_14_232
*1519 FILLER_14_234
*1542 FILLER_14_3
*1541 FILLER_14_31
*1540 FILLER_14_33
*1539 FILLER_14_37
*1538 FILLER_14_39
*1537 FILLER_14_64
*1536 FILLER_14_72
*1535 FILLER_14_76
*1534 FILLER_14_98
*1517 FILLER_15_11
*1513 FILLER_15_123
*1512 FILLER_15_127
*1511 FILLER_15_129
*1510 FILLER_15_131
*1509 FILLER_15_135
*1508 FILLER_15_137
*1507 FILLER_15_147
*1506 FILLER_15_151
*1505 FILLER_15_153
*1504 FILLER_15_178
*1503 FILLER_15_186
*1502 FILLER_15_194
*1501 FILLER_15_216
*1500 FILLER_15_231
*1518 FILLER_15_3
*1516 FILLER_15_63
*1515 FILLER_15_90
*1514 FILLER_15_98
*1493 FILLER_16_106
*1492 FILLER_16_115
*1491 FILLER_16_149
*1490 FILLER_16_157
*1489 FILLER_16_161
*1488 FILLER_16_163
*1487 FILLER_16_171
*1486 FILLER_16_225
*1485 FILLER_16_228
*1484 FILLER_16_232
*1483 FILLER_16_234
*1499 FILLER_16_3
*1497 FILLER_16_30
*1496 FILLER_16_39
*1495 FILLER_16_47
*1498 FILLER_16_5
*1494 FILLER_16_98
*1474 FILLER_17_109
*1473 FILLER_17_114
*1472 FILLER_17_122
*1471 FILLER_17_126
*1470 FILLER_17_131
*1469 FILLER_17_137
*1468 FILLER_17_162
*1467 FILLER_17_170
*1466 FILLER_17_178
*1465 FILLER_17_186
*1464 FILLER_17_194
*1463 FILLER_17_196
*1462 FILLER_17_204
*1461 FILLER_17_212
*1460 FILLER_17_214
*1482 FILLER_17_3
*1481 FILLER_17_31
*1480 FILLER_17_40
*1479 FILLER_17_48
*1478 FILLER_17_56
*1477 FILLER_17_66
*1476 FILLER_17_74
*1475 FILLER_17_78
*1451 FILLER_18_106
*1450 FILLER_18_114
*1449 FILLER_18_116
*1448 FILLER_18_149
*1447 FILLER_18_157
*1446 FILLER_18_161
*1445 FILLER_18_163
*1444 FILLER_18_171
*1443 FILLER_18_214
*1442 FILLER_18_231
*1459 FILLER_18_3
*1457 FILLER_18_33
*1456 FILLER_18_58
*1455 FILLER_18_62
*1458 FILLER_18_7
*1454 FILLER_18_94
*1453 FILLER_18_96
*1452 FILLER_18_98
*1428 FILLER_19_109
*1440 FILLER_19_11
*1427 FILLER_19_131
*1426 FILLER_19_189
*1439 FILLER_19_19
*1425 FILLER_19_193
*1424 FILLER_19_196
*1423 FILLER_19_200
*1422 FILLER_19_210
*1421 FILLER_19_214
*1438 FILLER_19_27
*1441 FILLER_19_3
*1437 FILLER_19_35
*1436 FILLER_19_43
*1435 FILLER_19_51
*1434 FILLER_19_59
*1433 FILLER_19_63
*1432 FILLER_19_66
*1431 FILLER_19_74
*1430 FILLER_19_82
*1429 FILLER_19_84
*1857 FILLER_1_103
*1866 FILLER_1_11
*1856 FILLER_1_110
*1855 FILLER_1_118
*1854 FILLER_1_120
*1853 FILLER_1_126
*1852 FILLER_1_131
*1851 FILLER_1_139
*1850 FILLER_1_147
*1849 FILLER_1_155
*1848 FILLER_1_182
*1865 FILLER_1_19
*1847 FILLER_1_190
*1846 FILLER_1_194
*1845 FILLER_1_196
*1844 FILLER_1_204
*1843 FILLER_1_212
*1842 FILLER_1_214
*1864 FILLER_1_23
*1867 FILLER_1_3
*1863 FILLER_1_64
*1862 FILLER_1_66
*1861 FILLER_1_82
*1860 FILLER_1_90
*1859 FILLER_1_94
*1858 FILLER_1_96
*1413 FILLER_20_102
*1412 FILLER_20_111
*1411 FILLER_20_113
*1410 FILLER_20_152
*1409 FILLER_20_160
*1408 FILLER_20_163
*1407 FILLER_20_179
*1406 FILLER_20_183
*1405 FILLER_20_185
*1404 FILLER_20_210
*1403 FILLER_20_218
*1402 FILLER_20_228
*1401 FILLER_20_232
*1400 FILLER_20_234
*1420 FILLER_20_27
*1419 FILLER_20_31
*1418 FILLER_20_33
*1417 FILLER_20_41
*1416 FILLER_20_45
*1415 FILLER_20_71
*1414 FILLER_20_98
*1393 FILLER_21_131
*1392 FILLER_21_135
*1391 FILLER_21_145
*1390 FILLER_21_153
*1389 FILLER_21_181
*1388 FILLER_21_189
*1387 FILLER_21_193
*1386 FILLER_21_220
*1385 FILLER_21_229
*1384 FILLER_21_233
*1398 FILLER_21_28
*1399 FILLER_21_3
*1397 FILLER_21_53
*1396 FILLER_21_61
*1395 FILLER_21_66
*1394 FILLER_21_74
*1374 FILLER_22_106
*1373 FILLER_22_114
*1372 FILLER_22_122
*1371 FILLER_22_158
*1370 FILLER_22_163
*1369 FILLER_22_171
*1368 FILLER_22_180
*1367 FILLER_22_188
*1366 FILLER_22_214
*1365 FILLER_22_222
*1364 FILLER_22_226
*1363 FILLER_22_228
*1362 FILLER_22_232
*1361 FILLER_22_234
*1383 FILLER_22_27
*1382 FILLER_22_31
*1381 FILLER_22_49
*1380 FILLER_22_74
*1379 FILLER_22_82
*1378 FILLER_22_90
*1377 FILLER_22_94
*1376 FILLER_22_96
*1375 FILLER_22_98
*1359 FILLER_23_11
*1349 FILLER_23_131
*1358 FILLER_23_15
*1357 FILLER_23_17
*1348 FILLER_23_176
*1347 FILLER_23_185
*1346 FILLER_23_193
*1356 FILLER_23_22
*1345 FILLER_23_224
*1344 FILLER_23_232
*1343 FILLER_23_234
*1360 FILLER_23_3
*1355 FILLER_23_54
*1354 FILLER_23_62
*1353 FILLER_23_64
*1352 FILLER_23_66
*1351 FILLER_23_73
*1350 FILLER_23_81
*1335 FILLER_24_106
*1334 FILLER_24_114
*1333 FILLER_24_122
*1332 FILLER_24_126
*1331 FILLER_24_151
*1330 FILLER_24_159
*1329 FILLER_24_161
*1328 FILLER_24_163
*1327 FILLER_24_171
*1326 FILLER_24_220
*1325 FILLER_24_228
*1324 FILLER_24_232
*1323 FILLER_24_234
*1342 FILLER_24_27
*1341 FILLER_24_31
*1340 FILLER_24_53
*1339 FILLER_24_61
*1338 FILLER_24_88
*1337 FILLER_24_96
*1336 FILLER_24_98
*1321 FILLER_25_11
*1315 FILLER_25_115
*1314 FILLER_25_123
*1313 FILLER_25_127
*1312 FILLER_25_129
*1311 FILLER_25_131
*1310 FILLER_25_139
*1309 FILLER_25_147
*1320 FILLER_25_15
*1308 FILLER_25_173
*1307 FILLER_25_181
*1306 FILLER_25_196
*1305 FILLER_25_204
*1304 FILLER_25_212
*1303 FILLER_25_214
*1322 FILLER_25_3
*1319 FILLER_25_40
*1318 FILLER_25_66
*1317 FILLER_25_82
*1316 FILLER_25_84
*1294 FILLER_26_106
*1293 FILLER_26_110
*1292 FILLER_26_112
*1291 FILLER_26_121
*1290 FILLER_26_125
*1289 FILLER_26_151
*1288 FILLER_26_155
*1287 FILLER_26_195
*1286 FILLER_26_203
*1285 FILLER_26_211
*1284 FILLER_26_228
*1283 FILLER_26_232
*1282 FILLER_26_234
*1302 FILLER_26_27
*1301 FILLER_26_31
*1300 FILLER_26_33
*1299 FILLER_26_41
*1298 FILLER_26_90
*1297 FILLER_26_94
*1296 FILLER_26_96
*1295 FILLER_26_98
*1280 FILLER_27_11
*1268 FILLER_27_125
*1267 FILLER_27_129
*1266 FILLER_27_131
*1265 FILLER_27_139
*1264 FILLER_27_143
*1263 FILLER_27_175
*1262 FILLER_27_183
*1261 FILLER_27_191
*1260 FILLER_27_196
*1259 FILLER_27_200
*1258 FILLER_27_205
*1257 FILLER_27_209
*1256 FILLER_27_224
*1255 FILLER_27_232
*1254 FILLER_27_234
*1281 FILLER_27_3
*1279 FILLER_27_43
*1278 FILLER_27_45
*1277 FILLER_27_50
*1276 FILLER_27_58
*1275 FILLER_27_62
*1274 FILLER_27_64
*1273 FILLER_27_66
*1272 FILLER_27_74
*1271 FILLER_27_82
*1270 FILLER_27_90
*1269 FILLER_27_92
*1241 FILLER_28_106
*1252 FILLER_28_11
*1240 FILLER_28_110
*1239 FILLER_28_136
*1238 FILLER_28_144
*1237 FILLER_28_152
*1236 FILLER_28_160
*1235 FILLER_28_163
*1234 FILLER_28_167
*1251 FILLER_28_19
*1233 FILLER_28_193
*1232 FILLER_28_218
*1231 FILLER_28_234
*1250 FILLER_28_27
*1253 FILLER_28_3
*1249 FILLER_28_31
*1248 FILLER_28_33
*1247 FILLER_28_41
*1246 FILLER_28_69
*1245 FILLER_28_77
*1244 FILLER_28_85
*1243 FILLER_28_93
*1242 FILLER_28_98
*1229 FILLER_29_11
*1219 FILLER_29_120
*1218 FILLER_29_128
*1217 FILLER_29_131
*1216 FILLER_29_143
*1215 FILLER_29_151
*1214 FILLER_29_159
*1213 FILLER_29_167
*1212 FILLER_29_175
*1211 FILLER_29_183
*1228 FILLER_29_19
*1210 FILLER_29_191
*1209 FILLER_29_196
*1208 FILLER_29_204
*1207 FILLER_29_212
*1206 FILLER_29_214
*1227 FILLER_29_27
*1230 FILLER_29_3
*1226 FILLER_29_35
*1225 FILLER_29_43
*1224 FILLER_29_51
*1223 FILLER_29_59
*1222 FILLER_29_63
*1221 FILLER_29_90
*1220 FILLER_29_94
*1840 FILLER_2_11
*1828 FILLER_2_112
*1827 FILLER_2_123
*1826 FILLER_2_131
*1825 FILLER_2_163
*1824 FILLER_2_165
*1823 FILLER_2_186
*1839 FILLER_2_19
*1822 FILLER_2_194
*1821 FILLER_2_202
*1820 FILLER_2_231
*1838 FILLER_2_27
*1841 FILLER_2_3
*1837 FILLER_2_31
*1836 FILLER_2_33
*1835 FILLER_2_35
*1834 FILLER_2_43
*1833 FILLER_2_51
*1832 FILLER_2_59
*1831 FILLER_2_80
*1830 FILLER_2_88
*1829 FILLER_2_96
*1198 FILLER_30_106
*1197 FILLER_30_114
*1196 FILLER_30_140
*1195 FILLER_30_148
*1194 FILLER_30_156
*1193 FILLER_30_160
*1192 FILLER_30_163
*1191 FILLER_30_179
*1190 FILLER_30_194
*1189 FILLER_30_219
*1188 FILLER_30_223
*1187 FILLER_30_228
*1186 FILLER_30_232
*1185 FILLER_30_234
*1204 FILLER_30_28
*1205 FILLER_30_3
*1203 FILLER_30_48
*1202 FILLER_30_56
*1201 FILLER_30_64
*1200 FILLER_30_72
*1199 FILLER_30_98
*1183 FILLER_31_11
*1179 FILLER_31_123
*1178 FILLER_31_127
*1177 FILLER_31_129
*1176 FILLER_31_144
*1182 FILLER_31_15
*1175 FILLER_31_151
*1174 FILLER_31_184
*1173 FILLER_31_194
*1172 FILLER_31_216
*1171 FILLER_31_218
*1170 FILLER_31_223
*1169 FILLER_31_231
*1184 FILLER_31_3
*1181 FILLER_31_66
*1180 FILLER_31_74
*1158 FILLER_32_106
*1157 FILLER_32_141
*1156 FILLER_32_157
*1155 FILLER_32_161
*1154 FILLER_32_163
*1153 FILLER_32_167
*1152 FILLER_32_193
*1151 FILLER_32_205
*1150 FILLER_32_213
*1149 FILLER_32_221
*1148 FILLER_32_225
*1147 FILLER_32_228
*1146 FILLER_32_232
*1145 FILLER_32_234
*1168 FILLER_32_3
*1166 FILLER_32_33
*1165 FILLER_32_41
*1164 FILLER_32_43
*1167 FILLER_32_7
*1163 FILLER_32_79
*1162 FILLER_32_83
*1161 FILLER_32_85
*1160 FILLER_32_93
*1159 FILLER_32_98
*1135 FILLER_33_107
*1134 FILLER_33_115
*1133 FILLER_33_123
*1132 FILLER_33_127
*1131 FILLER_33_129
*1130 FILLER_33_131
*1129 FILLER_33_139
*1128 FILLER_33_147
*1127 FILLER_33_151
*1126 FILLER_33_177
*1125 FILLER_33_185
*1124 FILLER_33_192
*1123 FILLER_33_194
*1122 FILLER_33_216
*1121 FILLER_33_224
*1120 FILLER_33_232
*1119 FILLER_33_234
*1143 FILLER_33_28
*1144 FILLER_33_3
*1142 FILLER_33_36
*1141 FILLER_33_44
*1140 FILLER_33_52
*1139 FILLER_33_60
*1138 FILLER_33_64
*1137 FILLER_33_66
*1136 FILLER_33_99
*1110 FILLER_34_106
*1109 FILLER_34_108
*1108 FILLER_34_117
*1107 FILLER_34_125
*1106 FILLER_34_129
*1105 FILLER_34_131
*1104 FILLER_34_159
*1103 FILLER_34_161
*1102 FILLER_34_179
*1101 FILLER_34_183
*1100 FILLER_34_208
*1099 FILLER_34_216
*1098 FILLER_34_218
*1097 FILLER_34_223
*1096 FILLER_34_228
*1095 FILLER_34_232
*1094 FILLER_34_234
*1118 FILLER_34_3
*1116 FILLER_34_40
*1115 FILLER_34_44
*1114 FILLER_34_54
*1113 FILLER_34_62
*1117 FILLER_34_7
*1112 FILLER_34_70
*1111 FILLER_34_96
*1092 FILLER_35_11
*1088 FILLER_35_129
*1091 FILLER_35_15
*1087 FILLER_35_155
*1086 FILLER_35_159
*1085 FILLER_35_191
*1084 FILLER_35_204
*1083 FILLER_35_212
*1082 FILLER_35_214
*1093 FILLER_35_3
*1090 FILLER_35_72
*1089 FILLER_35_80
*1073 FILLER_36_106
*1072 FILLER_36_114
*1071 FILLER_36_148
*1070 FILLER_36_156
*1069 FILLER_36_160
*1068 FILLER_36_211
*1067 FILLER_36_225
*1066 FILLER_36_228
*1065 FILLER_36_232
*1064 FILLER_36_234
*1081 FILLER_36_3
*1079 FILLER_36_57
*1078 FILLER_36_61
*1080 FILLER_36_7
*1077 FILLER_36_87
*1076 FILLER_36_91
*1075 FILLER_36_95
*1074 FILLER_36_98
*1057 FILLER_37_179
*1056 FILLER_37_187
*1055 FILLER_37_196
*1054 FILLER_37_200
*1053 FILLER_37_226
*1052 FILLER_37_234
*1062 FILLER_37_28
*1063 FILLER_37_3
*1061 FILLER_37_36
*1060 FILLER_37_40
*1059 FILLER_37_66
*1058 FILLER_37_74
*1033 FILLER_38_105
*1050 FILLER_38_11
*1032 FILLER_38_113
*1031 FILLER_38_121
*1030 FILLER_38_125
*1029 FILLER_38_127
*1028 FILLER_38_129
*1027 FILLER_38_137
*1026 FILLER_38_145
*1025 FILLER_38_153
*1024 FILLER_38_157
*1023 FILLER_38_159
*1022 FILLER_38_161
*1021 FILLER_38_169
*1020 FILLER_38_177
*1019 FILLER_38_185
*1018 FILLER_38_189
*1049 FILLER_38_19
*1017 FILLER_38_191
*1016 FILLER_38_193
*1015 FILLER_38_197
*1014 FILLER_38_199
*1013 FILLER_38_225
*1012 FILLER_38_233
*1048 FILLER_38_27
*1051 FILLER_38_3
*1047 FILLER_38_31
*1046 FILLER_38_33
*1045 FILLER_38_41
*1044 FILLER_38_49
*1043 FILLER_38_57
*1042 FILLER_38_61
*1041 FILLER_38_63
*1040 FILLER_38_65
*1039 FILLER_38_73
*1038 FILLER_38_81
*1037 FILLER_38_89
*1036 FILLER_38_93
*1035 FILLER_38_95
*1034 FILLER_38_97
*1808 FILLER_3_100
*1807 FILLER_3_108
*1806 FILLER_3_131
*1805 FILLER_3_180
*1804 FILLER_3_188
*1803 FILLER_3_192
*1802 FILLER_3_194
*1817 FILLER_3_21
*1801 FILLER_3_230
*1800 FILLER_3_234
*1819 FILLER_3_3
*1816 FILLER_3_43
*1815 FILLER_3_52
*1814 FILLER_3_59
*1813 FILLER_3_63
*1812 FILLER_3_66
*1818 FILLER_3_7
*1811 FILLER_3_74
*1810 FILLER_3_82
*1809 FILLER_3_90
*1791 FILLER_4_104
*1790 FILLER_4_112
*1789 FILLER_4_123
*1788 FILLER_4_131
*1787 FILLER_4_133
*1786 FILLER_4_141
*1785 FILLER_4_149
*1784 FILLER_4_153
*1783 FILLER_4_163
*1782 FILLER_4_167
*1781 FILLER_4_176
*1780 FILLER_4_180
*1779 FILLER_4_188
*1778 FILLER_4_231
*1798 FILLER_4_24
*1799 FILLER_4_3
*1797 FILLER_4_58
*1796 FILLER_4_62
*1795 FILLER_4_70
*1794 FILLER_4_72
*1793 FILLER_4_78
*1792 FILLER_4_86
*1762 FILLER_5_103
*1776 FILLER_5_11
*1761 FILLER_5_111
*1760 FILLER_5_119
*1759 FILLER_5_127
*1758 FILLER_5_129
*1757 FILLER_5_131
*1756 FILLER_5_139
*1755 FILLER_5_147
*1754 FILLER_5_155
*1753 FILLER_5_176
*1752 FILLER_5_186
*1775 FILLER_5_19
*1751 FILLER_5_194
*1750 FILLER_5_232
*1749 FILLER_5_234
*1774 FILLER_5_27
*1777 FILLER_5_3
*1773 FILLER_5_39
*1772 FILLER_5_41
*1771 FILLER_5_50
*1770 FILLER_5_58
*1769 FILLER_5_62
*1768 FILLER_5_64
*1767 FILLER_5_66
*1766 FILLER_5_70
*1765 FILLER_5_81
*1764 FILLER_5_89
*1763 FILLER_5_97
*1738 FILLER_6_119
*1737 FILLER_6_127
*1736 FILLER_6_135
*1735 FILLER_6_143
*1734 FILLER_6_151
*1733 FILLER_6_159
*1732 FILLER_6_161
*1731 FILLER_6_170
*1730 FILLER_6_172
*1729 FILLER_6_179
*1728 FILLER_6_187
*1727 FILLER_6_191
*1726 FILLER_6_198
*1725 FILLER_6_223
*1724 FILLER_6_228
*1723 FILLER_6_232
*1722 FILLER_6_234
*1747 FILLER_6_27
*1748 FILLER_6_3
*1746 FILLER_6_31
*1745 FILLER_6_33
*1744 FILLER_6_69
*1743 FILLER_6_77
*1742 FILLER_6_85
*1741 FILLER_6_89
*1740 FILLER_6_91
*1739 FILLER_6_98
*1708 FILLER_7_100
*1707 FILLER_7_108
*1706 FILLER_7_116
*1705 FILLER_7_120
*1704 FILLER_7_122
*1703 FILLER_7_131
*1702 FILLER_7_139
*1701 FILLER_7_149
*1700 FILLER_7_157
*1699 FILLER_7_173
*1698 FILLER_7_181
*1697 FILLER_7_189
*1696 FILLER_7_193
*1695 FILLER_7_225
*1694 FILLER_7_233
*1721 FILLER_7_3
*1719 FILLER_7_32
*1718 FILLER_7_40
*1717 FILLER_7_44
*1716 FILLER_7_52
*1715 FILLER_7_60
*1714 FILLER_7_64
*1713 FILLER_7_66
*1720 FILLER_7_7
*1712 FILLER_7_74
*1711 FILLER_7_78
*1710 FILLER_7_86
*1709 FILLER_7_94
*1680 FILLER_8_106
*1679 FILLER_8_114
*1678 FILLER_8_118
*1677 FILLER_8_150
*1676 FILLER_8_171
*1675 FILLER_8_173
*1674 FILLER_8_180
*1673 FILLER_8_184
*1672 FILLER_8_186
*1671 FILLER_8_211
*1670 FILLER_8_223
*1669 FILLER_8_228
*1668 FILLER_8_232
*1667 FILLER_8_234
*1692 FILLER_8_29
*1693 FILLER_8_3
*1691 FILLER_8_31
*1690 FILLER_8_41
*1689 FILLER_8_45
*1688 FILLER_8_47
*1687 FILLER_8_58
*1686 FILLER_8_78
*1685 FILLER_8_82
*1684 FILLER_8_90
*1683 FILLER_8_94
*1682 FILLER_8_96
*1681 FILLER_8_98
*1656 FILLER_9_104
*1665 FILLER_9_11
*1655 FILLER_9_112
*1654 FILLER_9_128
*1653 FILLER_9_136
*1652 FILLER_9_144
*1664 FILLER_9_15
*1651 FILLER_9_152
*1650 FILLER_9_160
*1649 FILLER_9_164
*1648 FILLER_9_173
*1647 FILLER_9_181
*1646 FILLER_9_189
*1645 FILLER_9_193
*1644 FILLER_9_196
*1643 FILLER_9_204
*1642 FILLER_9_206
*1641 FILLER_9_231
*1666 FILLER_9_3
*1663 FILLER_9_41
*1662 FILLER_9_49
*1661 FILLER_9_57
*1660 FILLER_9_66
*1659 FILLER_9_74
*1658 FILLER_9_79
*1657 FILLER_9_90
*735 PHY_EDGE_ROW_0_Left_39
*696 PHY_EDGE_ROW_0_Right_0
*745 PHY_EDGE_ROW_10_Left_49
*706 PHY_EDGE_ROW_10_Right_10
*746 PHY_EDGE_ROW_11_Left_50
*707 PHY_EDGE_ROW_11_Right_11
*747 PHY_EDGE_ROW_12_Left_51
*708 PHY_EDGE_ROW_12_Right_12
*748 PHY_EDGE_ROW_13_Left_52
*709 PHY_EDGE_ROW_13_Right_13
*749 PHY_EDGE_ROW_14_Left_53
*710 PHY_EDGE_ROW_14_Right_14
*750 PHY_EDGE_ROW_15_Left_54
*711 PHY_EDGE_ROW_15_Right_15
*751 PHY_EDGE_ROW_16_Left_55
*712 PHY_EDGE_ROW_16_Right_16
*752 PHY_EDGE_ROW_17_Left_56
*713 PHY_EDGE_ROW_17_Right_17
*753 PHY_EDGE_ROW_18_Left_57
*714 PHY_EDGE_ROW_18_Right_18
*754 PHY_EDGE_ROW_19_Left_58
*715 PHY_EDGE_ROW_19_Right_19
*736 PHY_EDGE_ROW_1_Left_40
*697 PHY_EDGE_ROW_1_Right_1
*755 PHY_EDGE_ROW_20_Left_59
*716 PHY_EDGE_ROW_20_Right_20
*756 PHY_EDGE_ROW_21_Left_60
*717 PHY_EDGE_ROW_21_Right_21
*757 PHY_EDGE_ROW_22_Left_61
*718 PHY_EDGE_ROW_22_Right_22
*758 PHY_EDGE_ROW_23_Left_62
*719 PHY_EDGE_ROW_23_Right_23
*759 PHY_EDGE_ROW_24_Left_63
*720 PHY_EDGE_ROW_24_Right_24
*760 PHY_EDGE_ROW_25_Left_64
*721 PHY_EDGE_ROW_25_Right_25
*761 PHY_EDGE_ROW_26_Left_65
*722 PHY_EDGE_ROW_26_Right_26
*762 PHY_EDGE_ROW_27_Left_66
*723 PHY_EDGE_ROW_27_Right_27
*763 PHY_EDGE_ROW_28_Left_67
*724 PHY_EDGE_ROW_28_Right_28
*764 PHY_EDGE_ROW_29_Left_68
*725 PHY_EDGE_ROW_29_Right_29
*737 PHY_EDGE_ROW_2_Left_41
*698 PHY_EDGE_ROW_2_Right_2
*765 PHY_EDGE_ROW_30_Left_69
*726 PHY_EDGE_ROW_30_Right_30
*766 PHY_EDGE_ROW_31_Left_70
*727 PHY_EDGE_ROW_31_Right_31
*767 PHY_EDGE_ROW_32_Left_71
*728 PHY_EDGE_ROW_32_Right_32
*768 PHY_EDGE_ROW_33_Left_72
*729 PHY_EDGE_ROW_33_Right_33
*769 PHY_EDGE_ROW_34_Left_73
*730 PHY_EDGE_ROW_34_Right_34
*770 PHY_EDGE_ROW_35_Left_74
*731 PHY_EDGE_ROW_35_Right_35
*771 PHY_EDGE_ROW_36_Left_75
*732 PHY_EDGE_ROW_36_Right_36
*772 PHY_EDGE_ROW_37_Left_76
*733 PHY_EDGE_ROW_37_Right_37
*773 PHY_EDGE_ROW_38_Left_77
*734 PHY_EDGE_ROW_38_Right_38
*738 PHY_EDGE_ROW_3_Left_42
*699 PHY_EDGE_ROW_3_Right_3
*739 PHY_EDGE_ROW_4_Left_43
*700 PHY_EDGE_ROW_4_Right_4
*740 PHY_EDGE_ROW_5_Left_44
*701 PHY_EDGE_ROW_5_Right_5
*741 PHY_EDGE_ROW_6_Left_45
*702 PHY_EDGE_ROW_6_Right_6
*742 PHY_EDGE_ROW_7_Left_46
*703 PHY_EDGE_ROW_7_Right_7
*743 PHY_EDGE_ROW_8_Left_47
*704 PHY_EDGE_ROW_8_Right_8
*744 PHY_EDGE_ROW_9_Left_48
*705 PHY_EDGE_ROW_9_Right_9
*774 TAP_TAPCELL_ROW_0_78
*775 TAP_TAPCELL_ROW_0_79
*776 TAP_TAPCELL_ROW_0_80
*777 TAP_TAPCELL_ROW_0_81
*778 TAP_TAPCELL_ROW_0_82
*779 TAP_TAPCELL_ROW_0_83
*780 TAP_TAPCELL_ROW_0_84
*812 TAP_TAPCELL_ROW_10_116
*813 TAP_TAPCELL_ROW_10_117
*814 TAP_TAPCELL_ROW_10_118
*815 TAP_TAPCELL_ROW_10_119
*816 TAP_TAPCELL_ROW_11_120
*817 TAP_TAPCELL_ROW_11_121
*818 TAP_TAPCELL_ROW_11_122
*819 TAP_TAPCELL_ROW_12_123
*820 TAP_TAPCELL_ROW_12_124
*821 TAP_TAPCELL_ROW_12_125
*822 TAP_TAPCELL_ROW_12_126
*823 TAP_TAPCELL_ROW_13_127
*824 TAP_TAPCELL_ROW_13_128
*825 TAP_TAPCELL_ROW_13_129
*826 TAP_TAPCELL_ROW_14_130
*827 TAP_TAPCELL_ROW_14_131
*828 TAP_TAPCELL_ROW_14_132
*829 TAP_TAPCELL_ROW_14_133
*830 TAP_TAPCELL_ROW_15_134
*831 TAP_TAPCELL_ROW_15_135
*832 TAP_TAPCELL_ROW_15_136
*833 TAP_TAPCELL_ROW_16_137
*834 TAP_TAPCELL_ROW_16_138
*835 TAP_TAPCELL_ROW_16_139
*836 TAP_TAPCELL_ROW_16_140
*837 TAP_TAPCELL_ROW_17_141
*838 TAP_TAPCELL_ROW_17_142
*839 TAP_TAPCELL_ROW_17_143
*840 TAP_TAPCELL_ROW_18_144
*841 TAP_TAPCELL_ROW_18_145
*842 TAP_TAPCELL_ROW_18_146
*843 TAP_TAPCELL_ROW_18_147
*844 TAP_TAPCELL_ROW_19_148
*845 TAP_TAPCELL_ROW_19_149
*846 TAP_TAPCELL_ROW_19_150
*781 TAP_TAPCELL_ROW_1_85
*782 TAP_TAPCELL_ROW_1_86
*783 TAP_TAPCELL_ROW_1_87
*847 TAP_TAPCELL_ROW_20_151
*848 TAP_TAPCELL_ROW_20_152
*849 TAP_TAPCELL_ROW_20_153
*850 TAP_TAPCELL_ROW_20_154
*851 TAP_TAPCELL_ROW_21_155
*852 TAP_TAPCELL_ROW_21_156
*853 TAP_TAPCELL_ROW_21_157
*854 TAP_TAPCELL_ROW_22_158
*855 TAP_TAPCELL_ROW_22_159
*856 TAP_TAPCELL_ROW_22_160
*857 TAP_TAPCELL_ROW_22_161
*858 TAP_TAPCELL_ROW_23_162
*859 TAP_TAPCELL_ROW_23_163
*860 TAP_TAPCELL_ROW_23_164
*861 TAP_TAPCELL_ROW_24_165
*862 TAP_TAPCELL_ROW_24_166
*863 TAP_TAPCELL_ROW_24_167
*864 TAP_TAPCELL_ROW_24_168
*865 TAP_TAPCELL_ROW_25_169
*866 TAP_TAPCELL_ROW_25_170
*867 TAP_TAPCELL_ROW_25_171
*868 TAP_TAPCELL_ROW_26_172
*869 TAP_TAPCELL_ROW_26_173
*870 TAP_TAPCELL_ROW_26_174
*871 TAP_TAPCELL_ROW_26_175
*872 TAP_TAPCELL_ROW_27_176
*873 TAP_TAPCELL_ROW_27_177
*874 TAP_TAPCELL_ROW_27_178
*875 TAP_TAPCELL_ROW_28_179
*876 TAP_TAPCELL_ROW_28_180
*877 TAP_TAPCELL_ROW_28_181
*878 TAP_TAPCELL_ROW_28_182
*879 TAP_TAPCELL_ROW_29_183
*880 TAP_TAPCELL_ROW_29_184
*881 TAP_TAPCELL_ROW_29_185
*784 TAP_TAPCELL_ROW_2_88
*785 TAP_TAPCELL_ROW_2_89
*786 TAP_TAPCELL_ROW_2_90
*787 TAP_TAPCELL_ROW_2_91
*882 TAP_TAPCELL_ROW_30_186
*883 TAP_TAPCELL_ROW_30_187
*884 TAP_TAPCELL_ROW_30_188
*885 TAP_TAPCELL_ROW_30_189
*886 TAP_TAPCELL_ROW_31_190
*887 TAP_TAPCELL_ROW_31_191
*888 TAP_TAPCELL_ROW_31_192
*889 TAP_TAPCELL_ROW_32_193
*890 TAP_TAPCELL_ROW_32_194
*891 TAP_TAPCELL_ROW_32_195
*892 TAP_TAPCELL_ROW_32_196
*893 TAP_TAPCELL_ROW_33_197
*894 TAP_TAPCELL_ROW_33_198
*895 TAP_TAPCELL_ROW_33_199
*896 TAP_TAPCELL_ROW_34_200
*897 TAP_TAPCELL_ROW_34_201
*898 TAP_TAPCELL_ROW_34_202
*899 TAP_TAPCELL_ROW_34_203
*900 TAP_TAPCELL_ROW_35_204
*901 TAP_TAPCELL_ROW_35_205
*902 TAP_TAPCELL_ROW_35_206
*903 TAP_TAPCELL_ROW_36_207
*904 TAP_TAPCELL_ROW_36_208
*905 TAP_TAPCELL_ROW_36_209
*906 TAP_TAPCELL_ROW_36_210
*907 TAP_TAPCELL_ROW_37_211
*908 TAP_TAPCELL_ROW_37_212
*909 TAP_TAPCELL_ROW_37_213
*910 TAP_TAPCELL_ROW_38_214
*911 TAP_TAPCELL_ROW_38_215
*912 TAP_TAPCELL_ROW_38_216
*913 TAP_TAPCELL_ROW_38_217
*914 TAP_TAPCELL_ROW_38_218
*915 TAP_TAPCELL_ROW_38_219
*916 TAP_TAPCELL_ROW_38_220
*788 TAP_TAPCELL_ROW_3_92
*789 TAP_TAPCELL_ROW_3_93
*790 TAP_TAPCELL_ROW_3_94
*791 TAP_TAPCELL_ROW_4_95
*792 TAP_TAPCELL_ROW_4_96
*793 TAP_TAPCELL_ROW_4_97
*794 TAP_TAPCELL_ROW_4_98
*796 TAP_TAPCELL_ROW_5_100
*797 TAP_TAPCELL_ROW_5_101
*795 TAP_TAPCELL_ROW_5_99
*798 TAP_TAPCELL_ROW_6_102
*799 TAP_TAPCELL_ROW_6_103
*800 TAP_TAPCELL_ROW_6_104
*801 TAP_TAPCELL_ROW_6_105
*802 TAP_TAPCELL_ROW_7_106
*803 TAP_TAPCELL_ROW_7_107
*804 TAP_TAPCELL_ROW_7_108
*805 TAP_TAPCELL_ROW_8_109
*806 TAP_TAPCELL_ROW_8_110
*807 TAP_TAPCELL_ROW_8_111
*808 TAP_TAPCELL_ROW_8_112
*809 TAP_TAPCELL_ROW_9_113
*810 TAP_TAPCELL_ROW_9_114
*811 TAP_TAPCELL_ROW_9_115
*387 _161_
*388 _162_
*389 _163_
*390 _164_
*391 _165_
*392 _166_
*393 _167_
*394 _168_
*395 _169_
*396 _170_
*397 _171_
*398 _172_
*399 _173_
*400 _174_
*401 _175_
*402 _176_
*403 _177_
*404 _178_
*405 _179_
*406 _180_
*407 _181_
*408 _182_
*409 _183_
*410 _184_
*411 _185_
*412 _186_
*413 _187_
*414 _188_
*415 _189_
*416 _190_
*417 _191_
*418 _192_
*419 _193_
*420 _194_
*421 _195_
*422 _196_
*423 _197_
*424 _198_
*425 _199_
*426 _200_
*427 _201_
*428 _202_
*429 _203_
*430 _204_
*431 _205_
*432 _206_
*433 _207_
*434 _208_
*435 _209_
*436 _210_
*437 _211_
*438 _212_
*439 _213_
*440 _214_
*441 _215_
*442 _216_
*443 _217_
*444 _218_
*445 _219_
*446 _220_
*447 _221_
*448 _222_
*449 _223_
*450 _224_
*451 _225_
*452 _226_
*453 _227_
*454 _228_
*455 _229_
*456 _230_
*457 _231_
*458 _232_
*459 _233_
*460 _234_
*461 _235_
*462 _236_
*463 _237_
*464 _238_
*465 _239_
*466 _240_
*467 _241_
*468 _242_
*469 _243_
*470 _244_
*471 _245_
*472 _246_
*473 _247_
*474 _248_
*475 _249_
*476 _250_
*477 _251_
*478 _252_
*479 _253_
*480 _254_
*481 _255_
*482 _256_
*483 _257_
*484 _258_
*485 _259_
*486 _260_
*487 _261_
*488 _262_
*489 _263_
*490 _264_
*491 _265_
*492 _266_
*493 _267_
*494 _268_
*495 _269_
*496 _270_